
#======================================================================
# CRYSTAL DATA
#----------------------------------------------------------------------
data_VESTA_phase_1

_chemical_name_common                  'PBA-Ni-O '
_cell_length_a                         14.426100
_cell_length_b                         14.426100
_cell_length_c                         21.000000
_cell_angle_alpha                      90.000000
_cell_angle_beta                       90.000000
_cell_angle_gamma                      90.000000
_cell_volume                           4370.359450
_space_group_name_H-M_alt              'P 1'
_space_group_IT_number                 1

loop_
_space_group_symop_operation_xyz
   'x, y, z'

loop_
   _atom_site_label
   _atom_site_occupancy
   _atom_site_fract_x
   _atom_site_fract_y
   _atom_site_fract_z
   _atom_site_adp_type
   _atom_site_U_iso_or_equiv
   _atom_site_type_symbol
   C1         1.0     0.170900     0.145040     0.089581    Uiso  ? C
   C2         1.0     0.418266     0.383765     0.322905    Uiso  ? C
   C3         1.0     0.354960     0.329100     0.089581    Uiso  ? C
   C4         1.0     0.109370     0.087119     0.331630    Uiso  ? C
   C5         1.0     0.012930     0.487070     0.243055    Uiso  ? C
   C6         1.0     0.262930     0.237070     0.178996    Uiso  ? C
   C7         1.0     0.170900     0.329100     0.089581    Uiso  ? C
   C8         1.0     0.416425     0.085839     0.331886    Uiso  ? C
   C9         1.0     0.354960     0.145040     0.089581    Uiso  ? C
   C10        1.0     0.109576     0.386477     0.332264    Uiso  ? C
   C11        1.0     0.670900     0.145040     0.089581    Uiso  ? C
   C12        1.0     0.916440     0.386865     0.331644    Uiso  ? C
   C13        1.0     0.854960     0.329100     0.089581    Uiso  ? C
   C14        1.0     0.609639     0.086085     0.331846    Uiso  ? C
   C15        1.0     0.513600     0.478417     0.232376    Uiso  ? C
   C16        1.0     0.762930     0.237070     0.178996    Uiso  ? C
   C17        1.0     0.670900     0.329100     0.089581    Uiso  ? C
   C18        1.0     0.916299     0.087196     0.331676    Uiso  ? C
   C19        1.0     0.854960     0.145040     0.089581    Uiso  ? C
   C20        1.0     0.608738     0.384680     0.324400    Uiso  ? C
   C21        1.0     0.170900     0.645040     0.089581    Uiso  ? C
   C22        1.0     0.420029     0.895949     0.334066    Uiso  ? C
   C23        1.0     0.354960     0.829100     0.089581    Uiso  ? C
   C24        1.0     0.107548     0.575939     0.334718    Uiso  ? C
   C25        1.0     0.012930     0.987070     0.243055    Uiso  ? C
   C26        1.0     0.262930     0.737070     0.178996    Uiso  ? C
   C27        1.0     0.170900     0.829100     0.089581    Uiso  ? C
   C28        1.0     0.422121     0.573359     0.321106    Uiso  ? C
   C29        1.0     0.354960     0.645040     0.089581    Uiso  ? C
   C30        1.0     0.105761     0.897615     0.333294    Uiso  ? C
   C31        1.0     0.670900     0.645040     0.089581    Uiso  ? C
   C32        1.0     0.919501     0.897578     0.333409    Uiso  ? C
   C33        1.0     0.854960     0.829100     0.089581    Uiso  ? C
   C34        1.0     0.605500     0.571958     0.323029    Uiso  ? C
   C35        1.0     0.512930     0.987070     0.243055    Uiso  ? C
   C36        1.0     0.762930     0.737070     0.178996    Uiso  ? C
   C37        1.0     0.670900     0.829100     0.089581    Uiso  ? C
   C38        1.0     0.919645     0.576291     0.333633    Uiso  ? C
   C39        1.0     0.854960     0.645040     0.089581    Uiso  ? C
   C40        1.0     0.606075     0.895652     0.333826    Uiso  ? C
   C41        1.0     0.513143     0.474921     0.410368    Uiso  ? C
   N1         1.0     0.113090     0.386910     0.089581    Uiso  ? N
   N2         1.0     0.357093     0.142155     0.333576    Uiso  ? N
   N3         1.0     0.412770     0.087230     0.089581    Uiso  ? N
   N4         1.0     0.168950     0.330152     0.334380    Uiso  ? N
   N5         1.0     0.113090     0.087230     0.089581    Uiso  ? N
   N6         1.0     0.358491     0.328977     0.329265    Uiso  ? N
   N7         1.0     0.412770     0.386910     0.089581    Uiso  ? N
   N8         1.0     0.168595     0.143425     0.333298    Uiso  ? N
   N9         1.0     0.012930     0.487070     0.186895    Uiso  ? N
   N10        1.0     0.262930     0.237070     0.235156    Uiso  ? N
   N11        1.0     0.613090     0.386910     0.089581    Uiso  ? N
   N12        1.0     0.857241     0.143693     0.333369    Uiso  ? N
   N13        1.0     0.912770     0.087230     0.089581    Uiso  ? N
   N14        1.0     0.667949     0.329345     0.329746    Uiso  ? N
   N15        1.0     0.613090     0.087230     0.089581    Uiso  ? N
   N16        1.0     0.857295     0.330370     0.333588    Uiso  ? N
   N17        1.0     0.912770     0.386910     0.089581    Uiso  ? N
   N18        1.0     0.668702     0.142671     0.333585    Uiso  ? N
   N19        1.0     0.513229     0.484645     0.176878    Uiso  ? N
   N20        1.0     0.762930     0.237070     0.235156    Uiso  ? N
   N21        1.0     0.113090     0.886910     0.089581    Uiso  ? N
   N22        1.0     0.366966     0.632626     0.327558    Uiso  ? N
   N23        1.0     0.412770     0.587230     0.089581    Uiso  ? N
   N24        1.0     0.162287     0.838523     0.336172    Uiso  ? N
   N25        1.0     0.113090     0.587230     0.089581    Uiso  ? N
   N26        1.0     0.363757     0.836587     0.337339    Uiso  ? N
   N27        1.0     0.412770     0.886910     0.089581    Uiso  ? N
   N28        1.0     0.165203     0.633976     0.338433    Uiso  ? N
   N29        1.0     0.012930     0.987070     0.186895    Uiso  ? N
   N30        1.0     0.262930     0.737070     0.235156    Uiso  ? N
   N31        1.0     0.613090     0.886910     0.089581    Uiso  ? N
   N32        1.0     0.862607     0.634992     0.336505    Uiso  ? N
   N33        1.0     0.912770     0.587230     0.089581    Uiso  ? N
   N34        1.0     0.662044     0.835970     0.336908    Uiso  ? N
   N35        1.0     0.613090     0.587230     0.089581    Uiso  ? N
   N36        1.0     0.863072     0.838435     0.336381    Uiso  ? N
   N37        1.0     0.912770     0.886910     0.089581    Uiso  ? N
   N38        1.0     0.660847     0.631016     0.329498    Uiso  ? N
   N39        1.0     0.512930     0.987070     0.186895    Uiso  ? N
   N40        1.0     0.762930     0.737070     0.235156    Uiso  ? N
   O1         1.0     0.514095     0.474935     0.464819    Uiso  ? O
   Aa1        1.0     0.512928     0.477465     0.320460    Uiso  ? Aa
   Bb1        1.0     0.512992     0.486752     0.087110    Uiso  ? Bb
   Cc1        1.0     0.763179     0.236239     0.327199    Uiso  ? Cc
   Dd1        1.0     0.262200     0.738494     0.324760    Uiso  ? Dd
   Ee1        1.0     0.262705     0.235581     0.327211    Uiso  ? Ee
   Ff1        1.0     0.763489     0.736540     0.324886    Uiso  ? Ff
   Ni1        1.0     0.262930     0.237070     0.089581    Uiso  ? Ni
   Ni2        1.0     0.013114     0.481637     0.328546    Uiso  ? Ni
   Ni3        1.0     0.012930     0.487070     0.089581    Uiso  ? Ni
   Ni4        1.0     0.762930     0.237070     0.089581    Uiso  ? Ni
   Ni5        1.0     0.262930     0.737070     0.089581    Uiso  ? Ni
   Ni6        1.0     0.012780     0.992404     0.328469    Uiso  ? Ni
   Ni7        1.0     0.012930     0.987070     0.089581    Uiso  ? Ni
   Ni8        1.0     0.762930     0.737070     0.089581    Uiso  ? Ni
   Ni9        1.0     0.513128     0.991106     0.328536    Uiso  ? Ni
   Ni10       1.0     0.512930     0.987070     0.089581    Uiso  ? Ni
