units           real
atom_style      full
boundary        p p p

pair_style      lj/cut/coul/long 12.500
bond_style      harmonic
angle_style     cosine/periodic
kspace_style    ewald 0.000001

pair_modify     tail yes mix arithmetic
dielectric      1.0
special_bonds   lj/coul 0.0 0.0 1.0
box tilt        large
read_data       data.box
Reading data file ...
  triclinic box = (0.0000000 0.0000000 0.0000000) to (30.000000 30.000000 30.000000) with tilt (0.0000000 0.0000000 0.0000000)
  reading atoms ...
  580 atoms
  scanning bonds ...
  scanning angles ...
  reading bonds ...
  480 bonds
  reading angles ...
  840 angles
Finding 1-2 1-3 1-4 neighbors ...
     6 = max # of 1-2 neighbors
     6 = max # of 1-3 neighbors
    12 = max # of special neighbors

#### Atom Groupings ####
group           1        id   1:60
60 atoms in group 1
group           2        id   61:580
520 atoms in group 2
#### END Atom Groupings ####

neighbor        2.0 bin
neigh_modify    delay 5
minimize 1.0e-4 1.0e-6 100000 100000
Ewald initialization ...
  G vector (1/distance) = 0.27178581
  estimated absolute RMS force accuracy = 0.00039020768
  estimated relative force accuracy = 1.1750988e-06
  KSpace vectors: actual max1d max3d = 1535 9 3429
                  kxmax kymax kzmax  = 9 9 9
  update every 1 steps, delay 0 steps, check yes
Step Temp E_pair E_mol TotEng Press
0            0    29397.033    5213.6823    34610.715    118597.19
Loop time of 0.84957 on 128 procs for 651 steps with 580 atoms

Minimization stats:
  Stopping criterion = energy tolerance
  Energy initial, next-to-last, final =
  Force two-norm initial, final = 10463.887 20.180949
  Force max component initial, final = 3899.3550 3.5694351
  Final line search alpha, max atom move = 0.0099200973 0.035409144
  Iterations, force evaluations = 651 1131

velocity all create 2273.0 1814 dist gaussian
fix 3 all npt temp 2000.0 2000.0 100.0 iso 0.0 0.0 1000
thermo 1000

neighbor        6.0 bin
neigh_modify    delay 0 every 1 check yes
timestep        0.2
run 5000
Ewald initialization ...
  G vector (1/distance) = 0.27178581
  estimated absolute RMS force accuracy = 0.00039020768
  estimated relative force accuracy = 1.1750988e-06
  KSpace vectors: actual max1d max3d = 1535 9 3429
                  kxmax kymax kzmax  = 9 9 9
Step Temp E_pair E_mol TotEng Press Volume
651         2273     -4770.77    2210.8319    1363.0076    2255.1943        27000
Loop time of 3.36022 on 128 procs for 5000 steps with 580 atoms

neighbor        2.0 bin
neigh_modify    delay 5
timestep        1.0

dump test1 all custom 10000 movie.data id type x y z
dump test all xyz 10000 movie.xyz
dump_modify test element Mn Fe Co Ni Zn N C Co
run            1000000
Ewald initialization ...
  G vector (1/distance) = 0.2733202
  estimated absolute RMS force accuracy = 0.0003348754
  estimated relative force accuracy = 1.0084673e-06
  KSpace vectors: actual max1d max3d = 1535 9 3429
                  kxmax kymax kzmax  = 9 9 9
Step Temp E_pair E_mol TotEng Press Volume
5651    1894.3413   -3491.2129    4515.9705    4294.1804   -5612.7424     20789.77
Averages over the last 501 of 1002 rows, steps 506000 to 1005651:
Temp E_pair E_mol TotEng Press Volume
2002.78 -6242.25 4895.87 2110.19 -47.9697 11165.5
Loop time of 435.483 on 128 procs for 1000000 steps with 580 atoms
