units           real
atom_style      full
boundary        p p p

pair_style      lj/cut/coul/long 12.500
bond_style      harmonic
angle_style     cosine/periodic
kspace_style    ewald 0.000001

special_bonds   lj/coul 0.0 0.0 1.0
dielectric      1.0
pair_modify     tail yes mix arithmetic
box tilt        large
read_data       data.box
Reading data file ...
  triclinic box = (0.0000000 0.0000000 0.0000000) to (30.000000 30.000000 30.000000) with tilt (0.0000000 0.0000000 0.0000000)
  reading atoms ...
  580 atoms
  scanning bonds ...
  scanning angles ...
  reading bonds ...
  480 bonds
  reading angles ...
  840 angles
Finding 1-2 1-3 1-4 neighbors ...
     6 = max # of 1-2 neighbors
     6 = max # of 1-3 neighbors
    12 = max # of special neighbors

#### Atom Groupings ####
group           1        id   1:60
60 atoms in group 1
group           2        id   61:580
520 atoms in group 2
#### END Atom Groupings ####

neighbor        2.0 bin
neigh_modify    delay 5
minimize 1.0e-4 1.0e-6 100000 100000
Ewald initialization ...
  G vector (1/distance) = 0.27178581
  estimated absolute RMS force accuracy = 0.00039020768
  estimated relative force accuracy = 1.1750988e-06
  KSpace vectors: actual max1d max3d = 1535 9 3429
                  kxmax kymax kzmax  = 9 9 9
  update every 1 steps, delay 0 steps, check yes
Step Temp E_pair E_mol TotEng Press
0            0    29100.787     5218.625    34319.412    118012.83
Loop time of 0.406841 on 128 procs for 461 steps with 580 atoms

Minimization stats:
  Stopping criterion = energy tolerance
  Energy initial, next-to-last, final =
  Force two-norm initial, final = 10457.412 42.678230
  Force max component initial, final = 3899.5554 11.307796
  Final line search alpha, max atom move = 0.0027242283 0.030805017
  Iterations, force evaluations = 461 775

velocity all create 2273.0 1814 dist gaussian
fix 3 all npt temp 2000.0 2000.0 100.0 iso 0.0 0.0 1000
thermo 1000

neighbor        6.0 bin
neigh_modify    delay 0 every 1 check yes
timestep        0.2
run 5000
Ewald initialization ...
  G vector (1/distance) = 0.27178581
  estimated absolute RMS force accuracy = 0.00039020768
  estimated relative force accuracy = 1.1750988e-06
  KSpace vectors: actual max1d max3d = 1535 9 3429
                  kxmax kymax kzmax  = 9 9 9
Step Temp E_pair E_mol TotEng Press Volume
461         2273   -4209.1754    2139.1365    1852.9069    1786.2704        27000
Loop time of 3.20855 on 128 procs for 5000 steps with 580 atoms

neighbor        2.0 bin
neigh_modify    delay 5
timestep        1.0

dump test1 all custom 10000 movie.data id type x y z
dump test all xyz 10000 movie.xyz
dump_modify test element Mn Fe Co Ni Zn N C Co
run            1000000
Ewald initialization ...
  G vector (1/distance) = 0.27328823
  estimated absolute RMS force accuracy = 0.00033496706
  estimated relative force accuracy = 1.0087433e-06
  KSpace vectors: actual max1d max3d = 1535 9 3429
                  kxmax kymax kzmax  = 9 9 9
Step Temp E_pair E_mol TotEng Press Volume
5461    2014.3246   -3549.9693    4442.9882    4369.5195   -2179.4401    20903.616
Averages over the last 501 of 1002 rows, steps 506000 to 1005461:
Temp E_pair E_mol TotEng Press Volume
2000.17 -6068.1 4979.41 2363.38 -367.416 10876.6
Loop time of 414.39 on 128 procs for 1000000 steps with 580 atoms
